IEEE/34Bus/ieee34-2_VLN_Node.Txt

LINE-GROUND and LINE-LINE VOLTAGES BY BUS & NODE

Bus       Node    VLN (kV)   Angle      pu     Base kV    Node-Node   VLL (kV)  Angle      pu

SOURCEBUS 1       41.829 /_   30.0      1.05    69.000        1-2      72.45 /_   60.0      1.05
   -      2       41.829 /_  -90.0      1.05    69.000        2-3      72.45 /_  -60.0      1.05
   -      3       41.829 /_  150.0      1.05    69.000        3-1      72.45 /_  180.0      1.05
800 ..... 1       15.095 /_    0.0      1.05    24.900        1-2     26.145 /_   30.0      1.05
   -      2       15.095 /_ -120.0      1.05    24.900        2-3     26.145 /_  -90.0      1.05
   -      3       15.095 /_  120.0      1.05    24.900        3-1     26.145 /_  150.0      1.05
802 ..... 1       15.059 /_   -0.1    1.0475    24.900        1-2     26.096 /_   30.0     1.048
   -      2       15.072 /_ -120.1    1.0484    24.900        2-3     26.104 /_  -90.1    1.0483
   -      3       15.072 /_  119.9    1.0484    24.900        3-1     26.094 /_  149.9     1.048
MID806 .. 1       15.046 /_   -0.1    1.0466    24.900        1-2      26.08 /_   29.9    1.0474
   -      2       15.065 /_ -120.1    1.0479    24.900        2-3      26.09 /_  -90.1    1.0478
   -      3       15.065 /_  119.9    1.0479    24.900        3-1     26.077 /_  149.9    1.0473
806 ..... 1       15.034 /_   -0.1    1.0458    24.900        1-2     26.064 /_   29.9    1.0467
   -      2       15.058 /_ -120.1    1.0474    24.900        2-3     26.077 /_  -90.1    1.0473
   -      3       15.057 /_  119.9    1.0474    24.900        3-1      26.06 /_  149.9    1.0466
808 ..... 1       14.578 /_   -0.8    1.0141    24.900        1-2     25.469 /_   29.4    1.0228
   -      2       14.803 /_ -121.0    1.0297    24.900        2-3     25.595 /_  -90.8    1.0279
   -      3       14.789 /_  119.3    1.0287    24.900        3-1     25.441 /_  149.0    1.0217
MID810 .. 2       14.802 /_ -121.0    1.0297    24.900
810 ..... 2       14.802 /_ -121.0    1.0297    24.900
812 ..... 1       14.048 /_   -1.6    0.9772    24.900        1-2     24.782 /_   28.8   0.99526
   -      2       14.522 /_ -121.9    1.0101    24.900        2-3     25.046 /_  -91.7    1.0059
   -      3       14.471 /_  118.6    1.0066    24.900        3-1     24.722 /_  148.0   0.99287
814 ..... 1       13.627 /_   -2.3   0.94793    24.900        1-2     24.235 /_   28.3   0.97329
   -      2         14.3 /_ -122.7    0.9947    24.900        2-3     24.612 /_  -92.5   0.98842
   -      3       14.218 /_  118.0   0.98903    24.900        3-1     24.153 /_  147.1   0.97001
814R .... 1       14.649 /_   -2.3     1.019    24.900        1-2     25.507 /_   27.6    1.0244
   -      2       14.747 /_ -122.7    1.0258    24.900        2-3     25.381 /_  -92.5    1.0193
   -      3       14.663 /_  118.0    1.0199    24.900        3-1     25.423 /_  147.8     1.021
850 ..... 1       14.649 /_   -2.3     1.019    24.900        1-2     25.507 /_   27.6    1.0244
   -      2       14.746 /_ -122.7    1.0258    24.900        2-3      25.38 /_  -92.5    1.0193
   -      3       14.663 /_  118.0    1.0199    24.900        3-1     25.423 /_  147.8     1.021
816 ..... 1       14.644 /_   -2.3    1.0186    24.900        1-2     25.499 /_   27.6    1.0241
   -      2       14.743 /_ -122.7    1.0255    24.900        2-3     25.374 /_  -92.5     1.019
   -      3       14.659 /_  118.0    1.0197    24.900        3-1     25.415 /_  147.8    1.0207
818 ..... 1       14.641 /_   -2.3    1.0185    24.900
MID824 .. 1       14.578 /_   -2.4    1.0141    24.900        1-2     25.391 /_   27.5    1.0197
   -      2       14.675 /_ -122.8    1.0208    24.900        2-3     25.264 /_  -92.6    1.0146
   -      3       14.598 /_  117.9    1.0154    24.900        3-1     25.297 /_  147.7    1.0159
824 ..... 1       14.513 /_   -2.4    1.0095    24.900        1-2     25.283 /_   27.4    1.0154
   -      2       14.608 /_ -122.9    1.0161    24.900        2-3     25.155 /_  -92.7    1.0102
   -      3       14.537 /_  117.7    1.0112    24.900        3-1     25.179 /_  147.6    1.0112
MID820 .. 1        14.61 /_   -2.4    1.0163    24.900
820 ..... 1       14.585 /_   -2.5    1.0145    24.900
MID822 .. 1       14.577 /_   -2.5     1.014    24.900
822 ..... 1       14.577 /_   -2.5     1.014    24.900
MID826 .. 2       14.607 /_ -122.9    1.0161    24.900
826 ..... 2       14.607 /_ -122.9    1.0161    24.900
MID828 .. 1       14.507 /_   -2.4    1.0091    24.900        1-2     25.274 /_   27.4     1.015
   -      2       14.603 /_ -122.9    1.0158    24.900        2-3     25.147 /_  -92.7    1.0099
   -      3       14.532 /_  117.7    1.0109    24.900        3-1      25.17 /_  147.6    1.0108
828 ..... 1       14.502 /_   -2.4    1.0088    24.900        1-2     25.266 /_   27.4    1.0147
   -      2       14.598 /_ -123.0    1.0154    24.900        2-3     25.138 /_  -92.7    1.0096
   -      3       14.527 /_  117.7    1.0105    24.900        3-1      25.16 /_  147.6    1.0104
MID830 .. 1       14.371 /_   -2.6   0.99968    24.900        1-2     25.059 /_   27.2    1.0064
   -      2       14.477 /_ -123.2     1.007    24.900        2-3     24.931 /_  -92.9    1.0012
   -      3       14.404 /_  117.5     1.002    24.900        3-1     24.926 /_  147.4     1.001
830 ..... 1       14.243 /_   -2.7   0.99075    24.900        1-2     24.853 /_   27.1   0.99813
   -      2       14.356 /_ -123.4   0.99859    24.900        2-3     24.724 /_  -93.2   0.99293
   -      3       14.282 /_  117.2   0.99344    24.900        3-1     24.693 /_  147.2   0.99169
854 ..... 1       14.237 /_   -2.7   0.99032    24.900        1-2     24.843 /_   27.1   0.99772
   -      2        14.35 /_ -123.4   0.99817    24.900        2-3     24.714 /_  -93.2   0.99252
   -      3       14.276 /_  117.2   0.99303    24.900        3-1     24.682 /_  147.2   0.99123
832 ..... 1       14.913 /_   -3.2    1.0373    24.900        1-2      25.93 /_   26.3    1.0414
   -      2       14.879 /_ -124.2     1.035    24.900        2-3     25.716 /_  -93.9    1.0328
   -      3       14.888 /_  116.3    1.0356    24.900        3-1     25.741 /_  146.6    1.0338
MID858 .. 1       14.896 /_   -3.2    1.0362    24.900        1-2     25.902 /_   26.2    1.0403
   -      2       14.862 /_ -124.2    1.0338    24.900        2-3     25.688 /_  -94.0    1.0317
   -      3       14.872 /_  116.2    1.0345    24.900        3-1     25.709 /_  146.5    1.0325
858 ..... 1       14.879 /_   -3.2     1.035    24.900        1-2     25.876 /_   26.2    1.0392
   -      2       14.846 /_ -124.3    1.0327    24.900        2-3     25.662 /_  -94.0    1.0306
   -      3       14.856 /_  116.2    1.0334    24.900        3-1     25.678 /_  146.5    1.0312
MID834 .. 1        14.86 /_   -3.3    1.0336    24.900        1-2     25.844 /_   26.2    1.0379
   -      2       14.826 /_ -124.3    1.0313    24.900        2-3      25.63 /_  -94.1    1.0293
   -      3       14.838 /_  116.1    1.0321    24.900        3-1     25.641 /_  146.4    1.0298
834 ..... 1       14.841 /_   -3.3    1.0323    24.900        1-2     25.813 /_   26.1    1.0367
   -      2       14.807 /_ -124.4    1.0299    24.900        2-3     25.599 /_  -94.2    1.0281
   -      3        14.82 /_  116.1    1.0309    24.900        3-1     25.606 /_  146.4    1.0283
842 ..... 1        14.84 /_   -3.3    1.0323    24.900        1-2     25.812 /_   26.1    1.0366
   -      2       14.806 /_ -124.4    1.0299    24.900        2-3     25.598 /_  -94.2     1.028
   -      3        14.82 /_  116.0    1.0309    24.900        3-1     25.605 /_  146.4    1.0283
836 ..... 1       14.832 /_   -3.3    1.0317    24.900        1-2     25.797 /_   26.1     1.036
   -      2       14.795 /_ -124.4    1.0292    24.900        2-3     25.583 /_  -94.2    1.0274
   -      3       14.813 /_  116.1    1.0304    24.900        3-1      25.59 /_  146.4    1.0277
MID840 .. 1       14.831 /_   -3.3    1.0317    24.900        1-2     25.796 /_   26.1     1.036
   -      2       14.795 /_ -124.4    1.0291    24.900        2-3     25.583 /_  -94.2    1.0274
   -      3       14.813 /_  116.1    1.0304    24.900        3-1      25.59 /_  146.4    1.0277
840 ..... 1       14.831 /_   -3.3    1.0317    24.900        1-2     25.796 /_   26.1     1.036
   -      2       14.795 /_ -124.4    1.0291    24.900        2-3     25.582 /_  -94.2    1.0274
   -      3       14.812 /_  116.1    1.0304    24.900        3-1     25.589 /_  146.4    1.0277
MID844 .. 1       14.838 /_   -3.3    1.0322    24.900        1-2     25.809 /_   26.1    1.0365
   -      2       14.803 /_ -124.4    1.0297    24.900        2-3     25.595 /_  -94.2    1.0279
   -      3       14.818 /_  116.0    1.0307    24.900        3-1     25.601 /_  146.4    1.0282
844 ..... 1       14.837 /_   -3.3    1.0321    24.900        1-2     25.805 /_   26.1    1.0364
   -      2       14.801 /_ -124.4    1.0296    24.900        2-3     25.591 /_  -94.2    1.0278
   -      3       14.816 /_  116.0    1.0306    24.900        3-1     25.599 /_  146.4    1.0281
MID846 .. 1       14.839 /_   -3.4    1.0322    24.900        1-2     25.807 /_   26.0    1.0364
   -      2         14.8 /_ -124.4    1.0295    24.900        2-3     25.592 /_  -94.2    1.0278
   -      3       14.818 /_  116.0    1.0307    24.900        3-1     25.601 /_  146.3    1.0282
846 ..... 1       14.841 /_   -3.4    1.0323    24.900        1-2     25.809 /_   26.0    1.0365
   -      2       14.801 /_ -124.5    1.0295    24.900        2-3     25.595 /_  -94.2    1.0279
   -      3        14.82 /_  116.0    1.0309    24.900        3-1     25.604 /_  146.3    1.0283
MID848 .. 1       14.841 /_   -3.4    1.0323    24.900        1-2     25.809 /_   26.0    1.0365
   -      2       14.801 /_ -124.5    1.0296    24.900        2-3     25.596 /_  -94.2    1.0279
   -      3       14.821 /_  116.0    1.0309    24.900        3-1     25.605 /_  146.3    1.0283
848 ..... 1       14.841 /_   -3.4    1.0324    24.900        1-2      25.81 /_   26.0    1.0365
   -      2       14.801 /_ -124.5    1.0296    24.900        2-3     25.596 /_  -94.2     1.028
   -      3       14.821 /_  116.0     1.031    24.900        3-1     25.605 /_  146.3    1.0283
MID856 .. 2        14.35 /_ -123.4   0.99817    24.900
856 ..... 2        14.35 /_ -123.4   0.99818    24.900
852 ..... 1       13.792 /_   -3.2    0.9594    24.900        1-2     24.122 /_   26.5   0.96875
   -      2       13.922 /_ -124.2   0.96843    24.900        2-3     23.992 /_  -94.0   0.96353
   -      3       13.849 /_  116.3   0.96336    24.900        3-1     23.876 /_  146.5   0.95886
852R .... 1       14.913 /_   -3.2    1.0373    24.900        1-2      25.93 /_   26.3    1.0414
   -      2       14.879 /_ -124.2     1.035    24.900        2-3     25.716 /_  -93.9    1.0328
   -      3       14.888 /_  116.3    1.0356    24.900        3-1     25.741 /_  146.6    1.0338
888 ..... 1       2.4041 /_   -4.7     1.001     4.160        1-2     4.1809 /_   24.7     1.005
   -      2        2.399 /_ -125.7   0.99882     4.160        2-3     4.1458 /_  -95.5    0.9966
   -      3       2.4006 /_  114.8   0.99953     4.160        3-1     4.1501 /_  145.1   0.99762
MID864 .. 1       14.879 /_   -3.2     1.035    24.900
864 ..... 1       14.879 /_   -3.2     1.035    24.900
MID860 .. 1       14.837 /_   -3.3     1.032    24.900        1-2     25.808 /_   26.1    1.0365
   -      2       14.803 /_ -124.4    1.0297    24.900        2-3     25.594 /_  -94.2    1.0279
   -      3       14.817 /_  116.1    1.0306    24.900        3-1     25.598 /_  146.4     1.028
860 ..... 1       14.835 /_   -3.3    1.0319    24.900        1-2     25.803 /_   26.1    1.0363
   -      2         14.8 /_ -124.4    1.0295    24.900        2-3      25.59 /_  -94.2    1.0277
   -      3       14.815 /_  116.1    1.0305    24.900        3-1     25.595 /_  146.4    1.0279
MID836 .. 1       14.832 /_   -3.3    1.0317    24.900        1-2     25.799 /_   26.1    1.0361
   -      2       14.798 /_ -124.4    1.0293    24.900        2-3     25.586 /_  -94.2    1.0275
   -      3       14.813 /_  116.1    1.0304    24.900        3-1     25.591 /_  146.4    1.0278
862 ..... 1       14.832 /_   -3.3    1.0317    24.900        1-2     25.797 /_   26.1     1.036
   -      2       14.795 /_ -124.4    1.0291    24.900        2-3     25.583 /_  -94.2    1.0274
   -      3       14.813 /_  116.1    1.0304    24.900        3-1      25.59 /_  146.4    1.0277
MID838 .. 2       14.794 /_ -124.4    1.0291    24.900
838 ..... 2       14.794 /_ -124.4    1.0291    24.900
890 ..... 1        2.205 /_   -5.3   0.91806     4.160        1-2     3.8605 /_   24.1     0.928
   -      2       2.2194 /_ -126.8   0.92405     4.160        2-3      3.816 /_  -96.5   0.91732
   -      3        2.203 /_  113.9   0.91725     4.160        3-1      3.802 /_  144.3   0.91394
